Version 4
SHEET 1 2388 836
WIRE 208 -688 128 -688
WIRE -128 -672 -128 -720
WIRE -128 -672 -288 -672
WIRE 16 -672 -128 -672
WIRE 32 -672 16 -672
WIRE 320 -656 128 -656
WIRE 512 -656 320 -656
WIRE 512 -624 512 -656
WIRE -288 -608 -288 -672
WIRE -128 -608 -128 -672
WIRE 320 -608 320 -656
WIRE -288 -480 -288 -528
WIRE -288 -480 -320 -480
WIRE -128 -480 -128 -544
WIRE -128 -480 -288 -480
WIRE 208 -480 208 -688
WIRE 208 -480 -128 -480
WIRE 320 -480 320 -544
WIRE 320 -480 208 -480
WIRE 512 -480 512 -560
WIRE 512 -480 320 -480
WIRE -320 -432 -320 -480
WIRE -128 -432 -128 -480
WIRE -288 -416 -288 -480
WIRE 320 -400 320 -480
WIRE 512 -400 512 -480
WIRE -128 -368 -128 -416
WIRE 208 -272 208 -480
WIRE 208 -272 96 -272
WIRE -288 -256 -288 -336
WIRE -128 -256 -128 -368
WIRE -128 -256 -288 -256
WIRE 32 -256 -128 -256
WIRE 320 -240 320 -336
WIRE 320 -240 96 -240
WIRE 512 -240 512 -336
WIRE 512 -240 320 -240
WIRE -128 -208 -128 -256
WIRE 560 -112 512 -112
WIRE 688 -112 640 -112
WIRE 1088 -112 1040 -112
WIRE 1264 -112 1168 -112
WIRE -16 -32 -64 -32
WIRE 240 -32 64 -32
WIRE -336 -16 -336 -48
WIRE 512 16 512 -112
WIRE 576 16 512 16
WIRE 688 16 688 -112
WIRE 688 16 640 16
WIRE 944 32 400 32
WIRE 1040 32 1040 -112
WIRE 1040 32 1024 32
WIRE 1072 32 1040 32
WIRE 1472 32 1472 -32
WIRE 1264 48 1264 -112
WIRE 1264 48 1136 48
WIRE 1424 48 1264 48
WIRE 1072 64 1040 64
WIRE 1744 64 1520 64
WIRE -336 80 -336 64
WIRE 1424 80 1360 80
WIRE 1040 96 1040 64
WIRE -144 112 -224 112
WIRE -64 112 -64 -32
WIRE -16 112 -64 112
WIRE 112 128 48 128
WIRE 240 128 240 -32
WIRE 240 128 192 128
WIRE 320 128 240 128
WIRE 400 128 400 32
WIRE 400 128 320 128
WIRE 432 128 400 128
WIRE 512 128 512 16
WIRE 592 128 512 128
WIRE -16 144 -64 144
WIRE 688 144 688 16
WIRE 688 144 656 144
WIRE 592 160 544 160
WIRE 1472 176 1472 96
WIRE 1088 208 1040 208
WIRE 1264 208 1168 208
WIRE -64 240 -64 224
WIRE 544 240 544 160
WIRE -224 352 -224 112
WIRE 688 352 688 144
WIRE 688 352 -224 352
WIRE 944 352 688 352
WIRE 1040 352 1040 208
WIRE 1040 352 1024 352
WIRE 1072 352 1040 352
WIRE 1264 368 1264 208
WIRE 1264 368 1136 368
WIRE 1072 384 1040 384
WIRE 1040 416 1040 384
FLAG 544 240 0
FLAG 624 112 V+
FLAG 16 160 V+
FLAG 16 96 V-
FLAG 624 176 V-
FLAG 1104 336 V+
FLAG 1104 400 V-
FLAG 1104 16 V+
FLAG 1104 80 V-
FLAG 1040 416 0
FLAG 1040 96 0
FLAG 1472 -32 V+
FLAG 1472 176 V-
FLAG -64 240 0
FLAG 320 256 0
FLAG -336 80 0
FLAG -336 -48 Vref
FLAG 1360 80 Vref
FLAG -320 -432 0
FLAG -128 -720 V+
FLAG -128 -208 V-
SYMBOL Agregados\\TL081 624 144 R0
SYMATTR InstName U1
SYMBOL res 80 -16 M270
WINDOW 0 32 56 VTop 2
WINDOW 3 0 56 VBottom 2
SYMATTR InstName R2
SYMATTR Value 100k
SYMBOL res -48 128 M270
WINDOW 0 32 56 VTop 2
WINDOW 3 0 56 VBottom 2
SYMATTR InstName R1
SYMATTR Value 100k
SYMBOL cap 640 0 R90
WINDOW 0 0 32 VBottom 2
WINDOW 3 32 32 VTop 2
SYMATTR InstName C1
SYMATTR Value .5µ
SYMBOL res 528 112 R90
WINDOW 0 0 56 VBottom 2
WINDOW 3 32 56 VTop 2
SYMATTR InstName R4
SYMATTR Value {Rfreq}
SYMBOL res -80 240 M180
WINDOW 0 36 76 Left 2
WINDOW 3 36 40 Left 2
SYMATTR InstName R5
SYMATTR Value 50k
SYMBOL voltage -336 -32 R0
WINDOW 123 0 0 Left 0
WINDOW 39 0 0 Left 0
SYMATTR InstName V4
SYMATTR Value 3
SYMBOL Agregados\\TL081 1104 368 R0
SYMATTR InstName U4
SYMBOL res 1040 336 R90
WINDOW 0 0 56 VBottom 2
WINDOW 3 32 56 VTop 2
SYMATTR InstName R8
SYMATTR Value 10k
SYMBOL res 1184 192 R90
WINDOW 0 0 56 VBottom 2
WINDOW 3 32 56 VTop 2
SYMATTR InstName R9
SYMATTR Value {RF}
SYMBOL Agregados\\TL081 1104 48 R0
SYMATTR InstName U3
SYMBOL res 1040 16 R90
WINDOW 0 0 56 VBottom 2
WINDOW 3 32 56 VTop 2
SYMATTR InstName R6
SYMATTR Value 10k
SYMBOL res 1184 -128 R90
WINDOW 0 0 56 VBottom 2
WINDOW 3 32 56 VTop 2
SYMATTR InstName R7
SYMATTR Value {RF}
SYMBOL Sumador 1472 64 R0
WINDOW 0 88 -59 Bottom 2
SYMATTR InstName Sumador
SYMBOL res 656 -128 R90
WINDOW 0 0 56 VBottom 2
WINDOW 3 32 56 VTop 2
SYMATTR InstName R3
SYMATTR Value 1Meg
SYMBOL res 208 112 R90
WINDOW 0 0 56 VBottom 2
WINDOW 3 32 56 VTop 2
SYMATTR InstName R10
SYMATTR Value 1k
SYMBOL zener 304 128 R0
SYMATTR InstName D1
SYMATTR Value D1N749
SYMBOL zener 336 256 R180
WINDOW 0 24 64 Left 2
WINDOW 3 24 0 Left 2
SYMATTR InstName D2
SYMATTR Value D1N749
SYMBOL Opamps\\UniversalOpamp2 16 128 M180
SYMATTR InstName U5
SYMBOL AutoGenerated\\LM7815 64 -672 R0
SYMATTR InstName U2
SYMBOL AutoGenerated\\LM7915 64 -256 R0
SYMATTR InstName U6
SYMBOL cap -144 -608 R0
SYMATTR InstName C2
SYMATTR Value 0.33µ
SYMBOL cap -144 -432 R0
SYMATTR InstName C3
SYMATTR Value 2.2µ
SYMBOL cap 304 -608 R0
SYMATTR InstName C4
SYMATTR Value 0.1µ
SYMBOL cap 304 -400 R0
SYMATTR InstName C5
SYMATTR Value 1µ
SYMBOL voltage -288 -624 R0
WINDOW 123 0 0 Left 0
WINDOW 39 0 0 Left 0
SYMATTR InstName V1
SYMATTR Value 12
SYMBOL voltage -288 -432 R0
WINDOW 123 0 0 Left 0
WINDOW 39 0 0 Left 0
SYMATTR InstName V2
SYMATTR Value 12
SYMBOL diode 528 -560 R180
WINDOW 0 24 64 Left 2
WINDOW 3 24 0 Left 2
SYMATTR InstName D3
SYMATTR Value 1N4001
SYMBOL diode 528 -336 R180
WINDOW 0 24 64 Left 2
WINDOW 3 24 0 Left 2
SYMATTR InstName D4
SYMATTR Value 1N4001
TEXT -568 192 Left 2 !.tran 0 3 0 0.5m uic
TEXT -568 144 Left 2 !.param RF=20k Rfreq=50k
TEXT 296 64 Left 2 ;Var freq
TEXT 1088 152 Left 2 ;Var amp
TEXT 1096 -176 Left 2 ;Var amp
